---- qbsp / ericw-tools 2.0.0-alpha10-30-gf9d0c901 ----

--- Options Summary ---
    "nocolor" was set to "1" (from command line)

Input file: C:\quake-leveldesign-starterkit-20260105-windows\working\quake\multiplayerMap1-compile.map
Output file: C:\quake-leveldesign-starterkit-20260105-windows\working\quake\multiplayerMap1.bsp

INFO: using built-in palette.
WARNING: multiplayerMap1-compile.map[line 4]: Unrecognised string escape - \q
WARNING: multiplayerMap1-compile.map[line 4]: Unrecognised string escape - \e
WARNING: multiplayerMap1-compile.map[line 4]: Unrecognised string escape - \q
WARNING: multiplayerMap1-compile.map[line 4]: Unrecognised string escape - \p
WARNING: multiplayerMap1-compile.map[line 4]: Unrecognised string escape - \p
      2 entities
      7 unique textures
    230 texinfos
    628 unique planes

INFO: world extents calculated to 6100 units
      205 brushes
    1,223 sides
      214 side bevels

            0 texture frames added
WARNING: unable to find texture skip
WARNING: unable to find texture __TB_empty
Processing hull 0...
    205 SOLID brushes
    205 brushes total
    1,223 visible sides
INFO: calculating BSP for 205 brushes with 1223 sides
      205 brushes
    1,223 visible faces
    5,801 nodes
    3,162 expensive split nodes
    2,639 mid-split nodes
    5,802 leaves
    2,888 EMPTY leafs
    2,914 SOLID leafs
    5,802 leafs total
    25 max tree height
    15 avg tree height
    99 tiny portals
    22,631 tree portals
    826 outside leaves
    0 detail filled leafs
    205 brushes
    731 visible faces
    492 non-visible faces
    1,225 nodes
      360 non-visible nodes
    1,225 expensive split nodes
    1,226 leaves
      653 EMPTY leafs
      573 SOLID leafs
    1,226 leafs total
    20 max tree height
    12 avg tree height
    44 tiny portals
    5,668 tree portals
    249 outside leaves
    0 detail filled leafs
    44 tiny portals
    5,668 tree portals
    3,578 sides visible
    1,789 makefaces
      543 merged
    2,407 subdivided
    433 nodes pruned
    9 tiny portals
      404 player-occupiable leaves
      404 clusters of leaves
    1,161 vis portals
    389 SOLID leafs
    404 EMPTY leafs
    793 leafs total
    19 max tree height
    12 avg tree height
     3,654 edges added by tjunctions
     3,611 faces optimized through MWT
    10,918 triangles computed from MWT
       995 faces created via optimization of MWT triangles
    10,211 edges
     4,648 faces
Processing hull 1...
Processing hull 2...
Writing multiplayerMap1.bsp as Quake BSP bsp29
Wrote multiplayerMap1.bsp

count   lump name    byte size 
      1 models               64
    538 planes            10760
   5352 vertexes          64224
    792 nodes             19008
    140 texinfos           5600
   4648 faces             92960
   2354 clipnodes         18832
    405 leafs             11340
   5389 marksurfaces      10778
  10212 edges             40848
  20256 surfedges         81024
      7 textures         109032
        lightdata             0
        visdata               0
        entdata             217

0.424s seconds elapsed


