---- qbsp / ericw-tools 2.0.0-alpha10-30-gf9d0c901 ----

--- Options Summary ---
    "nocolor" was set to "1" (from command line)

Input file: C:\quake-leveldesign-starterkit-20260105-windows\working\quake\multiplayerMap1-compile.map
Output file: C:\quake-leveldesign-starterkit-20260105-windows\working\quake\multiplayerMap1.bsp

INFO: using built-in palette.
WARNING: multiplayerMap1-compile.map[line 4]: Unrecognised string escape - \q
WARNING: multiplayerMap1-compile.map[line 4]: Unrecognised string escape - \e
WARNING: multiplayerMap1-compile.map[line 4]: Unrecognised string escape - \q
WARNING: multiplayerMap1-compile.map[line 4]: Unrecognised string escape - \p
WARNING: multiplayerMap1-compile.map[line 4]: Unrecognised string escape - \p
     2 entities
     3 unique textures
    55 texinfos
    76 unique planes

INFO: world extents calculated to 6100 units
     19 brushes
    113 sides
     71 side bevels

            0 texture frames added
WARNING: unable to find texture skip
Processing hull 0...
    19 SOLID brushes
    19 brushes total
    113 visible sides
INFO: calculating BSP for 19 brushes with 113 sides
     19 brushes
    113 visible faces
    105 nodes
    105 mid-split nodes
    106 leaves
     72 EMPTY leafs
     34 SOLID leafs
    106 leafs total
    13 max tree height
     8 avg tree height
    10 tiny portals
    458 tree portals
    63 outside leaves
    0 detail filled leafs
    19 brushes
    24 visible faces
    89 non-visible faces
    84 nodes
    64 non-visible nodes
    84 expensive split nodes
    85 leaves
    58 EMPTY leafs
    27 SOLID leafs
    85 leafs total
    12 max tree height
     8 avg tree height
    4 tiny portals
    377 tree portals
    53 outside leaves
    0 detail filled leafs
    4 tiny portals
    377 tree portals
    58 sides visible
     29 makefaces
      2 merged
    697 subdivided
    65 nodes pruned
    5 player-occupiable leaves
    5 clusters of leaves
    4 vis portals
    15 SOLID leafs
     5 EMPTY leafs
    20 leafs total
    8 max tree height
    6 avg tree height
        1 edges degenerated
      885 edges added by tjunctions
      713 faces optimized through MWT
    2,317 triangles computed from MWT
      322 faces created via optimization of MWT triangles
    2,210 edges
    1,046 faces
Processing hull 1...
Processing hull 2...
Writing multiplayerMap1.bsp as Quake BSP bsp29
Wrote multiplayerMap1.bsp

count   lump name    byte size 
      1 models               64
     42 planes              840
   1166 vertexes          13992
     19 nodes               456
     18 texinfos            720
   1046 faces             20920
     46 clipnodes           368
      6 leafs               168
   1046 marksurfaces       2092
   2211 edges              8844
   4420 surfedges         17680
      3 textures          43616
        lightdata             0
        visdata               0
        entdata             215

0.064s seconds elapsed


