---- qbsp / ericw-tools 2.0.0-alpha10-30-gf9d0c901 ----

--- Options Summary ---
    "nocolor" was set to "1" (from command line)

Input file: C:\quake-leveldesign-starterkit-20260105-windows\working\quake\multiplayerMap1-compile.map
Output file: C:\quake-leveldesign-starterkit-20260105-windows\working\quake\multiplayerMap1.bsp

INFO: using built-in palette.
WARNING: multiplayerMap1-compile.map[line 4]: Unrecognised string escape - \q
WARNING: multiplayerMap1-compile.map[line 4]: Unrecognised string escape - \e
WARNING: multiplayerMap1-compile.map[line 4]: Unrecognised string escape - \q
WARNING: multiplayerMap1-compile.map[line 4]: Unrecognised string escape - \p
WARNING: multiplayerMap1-compile.map[line 4]: Unrecognised string escape - \p
      2 entities
      5 unique textures
     95 texinfos
    140 unique planes

INFO: world extents calculated to 6100 units
     34 brushes
    200 sides
    125 side bevels

            0 texture frames added
WARNING: unable to find texture skip
WARNING: unable to find texture __TB_empty
Processing hull 0...
    34 SOLID brushes
    34 brushes total
    200 visible sides
INFO: calculating BSP for 34 brushes with 200 sides
     34 brushes
    200 visible faces
    616 nodes
     82 expensive split nodes
    534 mid-split nodes
    617 leaves
    337 EMPTY leafs
    280 SOLID leafs
    617 leafs total
    16 max tree height
    11 avg tree height
    31 tiny portals
    2,451 tree portals
    232 outside leaves
    0 detail filled leafs
     34 brushes
     73 visible faces
    127 non-visible faces
    277 nodes
    145 non-visible nodes
    277 expensive split nodes
    278 leaves
    161 EMPTY leafs
    117 SOLID leafs
    278 leafs total
    20 max tree height
    11 avg tree height
    21 tiny portals
    1,218 tree portals
    117 outside leaves
    0 detail filled leafs
    21 tiny portals
    1,218 tree portals
    384 sides visible
      192 makefaces
       48 merged
    1,480 subdivided
    165 nodes pruned
    1 tiny portals
     44 player-occupiable leaves
     44 clusters of leaves
    120 vis portals
     69 SOLID leafs
     44 EMPTY leafs
    113 leafs total
    15 max tree height
    10 avg tree height
    2,198 edges added by tjunctions
    1,600 faces optimized through MWT
    5,418 triangles computed from MWT
      789 faces created via optimization of MWT triangles
    5,141 edges
    2,413 faces
Processing hull 1...
Processing hull 2...
Writing multiplayerMap1.bsp as Quake BSP bsp29
Wrote multiplayerMap1.bsp

count   lump name    byte size 
      1 models               64
    137 planes             2740
   2707 vertexes          32484
    112 nodes              2688
     51 texinfos           2040
   2413 faces             48260
    374 clipnodes          2992
     45 leafs              1260
   2567 marksurfaces       5134
   5142 edges             20568
  10268 surfedges         41072
      5 textures          65424
        lightdata             0
        visdata               0
        entdata             217

0.106s seconds elapsed


