---- qbsp / ericw-tools 2.0.0-alpha10-30-gf9d0c901 ----

--- Options Summary ---
    "nocolor" was set to "1" (from command line)

Input file: C:\quake-leveldesign-starterkit-20260105-windows\working\quake\multiplayerMap1-compile.map
Output file: C:\quake-leveldesign-starterkit-20260105-windows\working\quake\multiplayerMap1.bsp

INFO: using built-in palette.
WARNING: multiplayerMap1-compile.map[line 4]: Unrecognised string escape - \q
WARNING: multiplayerMap1-compile.map[line 4]: Unrecognised string escape - \e
WARNING: multiplayerMap1-compile.map[line 4]: Unrecognised string escape - \q
WARNING: multiplayerMap1-compile.map[line 4]: Unrecognised string escape - \p
WARNING: multiplayerMap1-compile.map[line 4]: Unrecognised string escape - \p
       71 entities
       28 unique textures
    2,513 texinfos
    4,772 unique planes

INFO: world extents calculated to 8438 units
      969 brushes
    7,025 sides
    3,309 side bevels

            0 texture frames added
WARNING: unable to find texture skip
WARNING: unable to find texture __TB_empty
Processing hull 0...
    664 SOLID brushes
    304 MIST | MIRROR_INSIDE_SET | TRANSLUCENT | DETAIL brushes
      1 DETAIL_WALL | DETAIL brushes
    969 brushes total
    7,025 visible sides
INFO: calculating BSP for 969 brushes with 7025 sides
      969 brushes
    7,025 visible faces
    22,242 nodes
    13,958 expensive split nodes
     8,284 mid-split nodes
    22,243 leaves
    10,807 EMPTY leafs
    10,208 SOLID leafs
        62 DETAIL_WALL | DETAIL leafs
     1,043 MIST | MIRROR_INSIDE_SET | TRANSLUCENT | DETAIL leafs
       123 SOLID | MIST | MIRROR_INSIDE_SET leafs
    22,243 leafs total
    50 max tree height
    21 avg tree height
    694 tiny portals
    89,501 tree portals
    2,801 outside leaves
    0 detail filled leafs
      969 brushes
    4,894 visible faces
    2,131 non-visible faces
    8,026 nodes
    2,113 non-visible nodes
    8,026 expensive split nodes
    8,027 leaves
    4,117 EMPTY leafs
    3,117 SOLID leafs
      686 MIST | MIRROR_INSIDE_SET | TRANSLUCENT | DETAIL leafs
       15 DETAIL_WALL | DETAIL leafs
       92 SOLID | MIST | MIRROR_INSIDE_SET leafs
    8,027 leafs total
    53 max tree height
    20 avg tree height
    431 tiny portals
    37,245 tree portals
    1,015 outside leaves
    0 detail filled leafs
    431 tiny portals
    37,245 tree portals
    17,317 sides visible
    10,117 makefaces
     3,692 merged
     2,113 subdivided
    2,835 nodes pruned
    140 tiny portals
    3,788 player-occupiable leaves
    1,513 clusters of leaves
    5,097 vis portals
    1,390 SOLID leafs
    3,102 EMPTY leafs
      686 MIST | MIRROR_INSIDE_SET | TRANSLUCENT | DETAIL leafs
       14 SOLID | MIST | MIRROR_INSIDE_SET leafs
    5,192 leafs total
    49 max tree height
    20 avg tree height
         3 edges degenerated
     7,081 edges added by tjunctions
     7,811 faces optimized through MWT
    23,402 triangles computed from MWT
     2,082 faces created via optimization of MWT triangles
    23,169 edges
    10,620 faces
Processing hull 1...
Processing hull 2...
WARNING: huge winding
Writing multiplayerMap1.bsp as Quake BSP bsp29
Wrote multiplayerMap1.bsp

count   lump name    byte size 
      1 models               64
   3297 planes            65940
  11864 vertexes         142368
   5191 nodes            124584
   1883 texinfos          75320
  10620 faces            212400
   5888 clipnodes         47104
   3789 leafs            106092
  13839 marksurfaces      27678
  23170 edges             92680
  45370 surfedges        181480
     28 textures         182376
        lightdata             0
        visdata               0
        entdata            2888

1.861s seconds elapsed


