---- qbsp / ericw-tools 2.0.0-alpha10-30-gf9d0c901 ----

--- Options Summary ---
    "nocolor" was set to "1" (from command line)

Input file: C:\quake-leveldesign-starterkit-20260105-windows\working\quake\multiplayerMap1-compile.map
Output file: C:\quake-leveldesign-starterkit-20260105-windows\working\quake\multiplayerMap1.bsp

INFO: using built-in palette.
WARNING: multiplayerMap1-compile.map[line 4]: Unrecognised string escape - \q
WARNING: multiplayerMap1-compile.map[line 4]: Unrecognised string escape - \e
WARNING: multiplayerMap1-compile.map[line 4]: Unrecognised string escape - \q
WARNING: multiplayerMap1-compile.map[line 4]: Unrecognised string escape - \p
WARNING: multiplayerMap1-compile.map[line 4]: Unrecognised string escape - \p
     2 entities
     3 unique textures
    54 texinfos
    74 unique planes

INFO: world extents calculated to 6100 units
     17 brushes
    101 sides
     61 side bevels

            0 texture frames added
WARNING: unable to find texture skip
Processing hull 0...
    17 SOLID brushes
    17 brushes total
    101 visible sides
INFO: calculating BSP for 17 brushes with 101 sides
     17 brushes
    101 visible faces
    94 nodes
    94 mid-split nodes
    95 leaves
    66 EMPTY leafs
    29 SOLID leafs
    95 leafs total
    11 max tree height
     8 avg tree height
    10 tiny portals
    408 tree portals
    62 outside leaves
    0 detail filled leafs
    17 brushes
    14 visible faces
    87 non-visible faces
    83 nodes
    71 non-visible nodes
    83 expensive split nodes
    84 leaves
    58 EMPTY leafs
    26 SOLID leafs
    84 leafs total
    12 max tree height
     7 avg tree height
    4 tiny portals
    371 tree portals
    56 outside leaves
    0 detail filled leafs
    4 tiny portals
    371 tree portals
    30 sides visible
     15 makefaces
      3 merged
    514 subdivided
    72 nodes pruned
    2 player-occupiable leaves
    2 clusters of leaves
    1 vis portals
    10 SOLID leafs
     2 EMPTY leafs
    12 leafs total
    7 max tree height
    5 avg tree height
      488 edges added by tjunctions
      525 faces optimized through MWT
    1,539 triangles computed from MWT
      173 faces created via optimization of MWT triangles
    1,469 edges
      699 faces
Processing hull 1...
Processing hull 2...
Writing multiplayerMap1.bsp as Quake BSP bsp29
Wrote multiplayerMap1.bsp

count   lump name    byte size 
      1 models               64
     23 planes              460
    772 vertexes           9264
     11 nodes               264
     10 texinfos            400
    699 faces             13980
     22 clipnodes           176
      3 leafs                84
    699 marksurfaces       1398
   1470 edges              5880
   2938 surfedges         11752
      3 textures          43616
        lightdata             0
        visdata               0
        entdata             215

0.053s seconds elapsed


